version 2
1
9
.tran 1n 2000ns 0ns{return}.ic V(OUT0)=4.8{return}{return}{return}.kicad adjustpaths{return}.save all{return}.probe alli
2
1
V(/VCO/In)
 
1
V(OUT)
 
