version 2
1
9
.tran 1n 1000ns 0ns{return}.ic V(OUT0)=15{return}{return}{return}.kicad adjustpaths{return}.save all{return}.probe alli
4
1
V(/VCO/In)
 
1
V(/VCO/OUT0)
 
1
V(/VCO/VDD)
 
1
V(Net-_M8-D_)
 
