version 2
1
9
.tran 1n 2000ns 0ns{return}.ic V(OUT0)=4.8{return}{return}.kicad adjustpaths{return}.save all{return}.probe alli
5
1
V(/VCO/In)
 
1
V(Net-_M17-D_)
 
1
V(Net-_M20-D_)
 
1
V(Net-_M22-S_)
 
1
V(OUT)
 
