version 2
1
9
.tran 1ns 2000ns 0s 1000ns{return}{return}{return}.kicad adjustpaths{return}.save all{return}.probe alli
2
1
V(/tb/A)
 
1
V(/tb/x)
 
