version 2
1
9
.tran 1ns 2000ns{return}.kicad adjustpaths{return}.save all{return}.probe alli
1
1
V(X)
 
