version 2
1
9
.tran 1ns 3000ns{return}{return}{return}{return}.kicad adjustpaths{return}.save all{return}.probe alli
2
1
V(/VCO/IN)
 
1
V(VCO_OUT)
 
