version 2
1
9
.tran 1ns 2000ns{return}{return}{return}.kicad adjustpaths{return}.save all{return}.probe alli
3
1
V(/VDD)
 
1
V(Net-_M43-S_)
 
1
V(Net-_M48-S_)
 
