version 2
1
9
.tran 1ns 1000ns{return}{return}{return}.kicad adjustpaths{return}.save all{return}.probe alli
1
1
V(OUT)
 
