version 2
1
9
.tran 1ns 3000ns{return}{return}{return}{return}.kicad adjustpaths{return}.save all{return}.probe alli
4
1
V(/VCO_buf/IN)
 
1
V(/VCO_buf/VCO/VCO_OUT)
 
1
V(Net-_M5-D_)
 
1
V(Vout)
 
