version 2
1
9
.tran 1ns 2000ns 1500ns{return}{return}{return}{return}.kicad adjustpaths{return}.save all{return}.probe alli
5
1
V(/VCO_buf/IN)
 
1
V(/VCO_buf/VCO/VCO_OUT)
 
1
V(Net-_M31-D_)
 
1
V(Net-_M33-D_)
 
1
V(Vout)
 
