version 2
1
9
.tran 1ns 2000ns 1500ns{return}{return}{return}.kicad adjustpaths{return}.save all{return}.probe alli
2
1
V(/VCO_comp/VCO/VCO_OUT)
 
1
V(/VCO_comp/VCO/VCO_OUT_prev)
 
